*load regulation
.include ../AE01.01.01.062.cir
.param VIN=30
.param ILOAD=5
.dc I1 0 {ILOAD} 0.001
.backanno

